REMARK  4 active torsions:
REMARK  status: ('A' for Active; 'I' for Inactive)
REMARK    1  A    between atoms: N1_4  and  C12_18 
REMARK    2  A    between atoms: O1_5  and  C8_14 
REMARK    3  A    between atoms: C4_10  and  C5_11 
REMARK    4  A    between atoms: C10_16  and  C13_19 
ROOT
HETATM    1  N3  XEY A 400       9.284   3.638  18.690  1.00 23.36    -0.191 NA
HETATM    2  C13 XEY A 400      10.690   2.531  21.836  1.00 29.82    -0.004 A 
HETATM    3  C18 XEY A 400      10.760   3.569  20.902  1.00 32.50     0.055 A 
HETATM    4  C19 XEY A 400      11.637   4.622  21.105  1.00 34.65    -0.062 A 
HETATM    5  C20 XEY A 400      12.445   4.658  22.220  1.00 35.83    -0.082 A 
HETATM    6  C21 XEY A 400      12.389   3.649  23.150  1.00 32.10    -0.082 A 
HETATM    7  C22 XEY A 400      11.519   2.589  22.964  1.00 33.01    -0.071 A 
HETATM    8  C23 XEY A 400       9.907   3.602  19.633  1.00 28.19     0.100 C 
HETATM    9  H11 XEY A 400      11.688   5.430  20.375  1.00 34.65     0.085 H 
HETATM   10  H12 XEY A 400      13.132   5.492  22.365  1.00 35.83     0.083 H 
HETATM   11  H13 XEY A 400      13.028   3.683  24.032  1.00 32.10     0.083 H 
HETATM   12  H14 XEY A 400      11.478   1.790  23.704  1.00 33.01     0.084 H 
ENDROOT
BRANCH   2  13
HETATM   13  C10 XEY A 400       9.773   1.313  21.712  1.00 27.49    -0.007 A 
HETATM   14  C9  XEY A 400       9.666   0.615  20.468  1.00 27.01    -0.002 A 
HETATM   15  N1  XEY A 400       8.816  -0.534  20.400  1.00 27.00    -0.300 N 
HETATM   16  H05 XEY A 400      10.220   0.951  19.591  1.00 27.01     0.113 H 
HETATM   17  C8  XEY A 400       8.121  -0.978  21.522  1.00 24.37     0.158 A 
HETATM   18  C5  XEY A 400       8.237  -0.276  22.814  1.00 25.66     0.026 A 
HETATM   19  C11 XEY A 400       9.063   0.850  22.875  1.00 28.82    -0.056 A 
HETATM   20  H06 XEY A 400       9.171   1.386  23.818  1.00 28.82     0.086 H 
BRANCH  15  21
HETATM   21  C12 XEY A 400       8.668  -1.251  19.149  1.00 22.91     0.058 A 
HETATM   22  C14 XEY A 400       9.741  -1.877  18.576  1.00 27.70    -0.054 A 
HETATM   23  C15 XEY A 400       9.606  -2.544  17.405  1.00 26.09    -0.064 A 
HETATM   24  H07 XEY A 400      10.714  -1.839  19.066  1.00 27.70     0.087 H 
HETATM   25  C16 XEY A 400       8.381  -2.578  16.788  1.00 27.10     0.002 A 
HETATM   26  H08 XEY A 400      10.462  -3.049  16.957  1.00 26.09     0.085 H 
HETATM   27  N2  XEY A 400       7.322  -1.971  17.339  1.00 24.18    -0.271 NA
HETATM   28  H09 XEY A 400       8.269  -3.104  15.840  1.00 27.10     0.114 H 
HETATM   29  C17 XEY A 400       7.424  -1.305  18.499  1.00 23.16     0.028 A 
HETATM   30  H10 XEY A 400       6.553  -0.812  18.931  1.00 23.16     0.118 H 
ENDBRANCH  15  21
BRANCH  17  31
HETATM   31  O1  XEY A 400       7.320  -2.102  21.427  1.00 23.86    -0.345 OA
HETATM   32  H01 XEY A 400       7.128  -2.434  22.307  1.00 23.86     0.219 HD
ENDBRANCH  17  31
BRANCH  18  33
HETATM   33  C4  XEY A 400       7.457  -0.788  24.021  1.00 26.93    -0.018 A 
HETATM   34  C2  XEY A 400       6.775   0.107  24.827  1.00 26.22    -0.051 A 
HETATM   35  C1  XEY A 400       6.062  -0.370  25.914  1.00 31.20     0.036 A 
HETATM   36  H02 XEY A 400       6.799   1.175  24.609  1.00 26.22     0.087 H 
HETATM   37 CL1  XEY A 400       5.200   0.775  26.968  1.00 37.46    -0.084 Cl
HETATM   38  C3  XEY A 400       6.020  -1.722  26.198  1.00 32.62    -0.041 A 
HETATM   39  C7  XEY A 400       6.692  -2.613  25.385  1.00 33.38     0.036 A 
HETATM   40  H03 XEY A 400       5.459  -2.083  27.060  1.00 32.62     0.088 H 
HETATM   41 CL2  XEY A 400       6.629  -4.358  25.730  1.00 37.74    -0.084 Cl
HETATM   42  C6  XEY A 400       7.408  -2.146  24.297  1.00 31.17    -0.051 A 
HETATM   43  H04 XEY A 400       7.936  -2.849  23.653  1.00 31.17     0.087 H 
ENDBRANCH  18  33
ENDBRANCH   2  13
TORSDOF 4
